<?xml version="1.0" encoding="UTF-8"?>
<additional xmlns:xsi="http://www.w3.org/2001/XMLSchema-instance" xsi:noNamespaceSchemaLocation="http://sumo.dlr.de/xsd/additional_file.xsd">
<additional>
<variableSpeedSign id="incident_8" lanes="-120285564_0 -776546858#0_0 -32828707_0 -1373117664_0 -1373117663_0 -1373117662_0 -1373117666_0 1373117666_0 1373117662_0 1373117663_0">
<step time="49110210" speed="0.5" />
<step time="49113810" speed="1.0" />
</variableSpeedSign>
<variableSpeedSign id="incident_9" lanes="-32828707_0 -1373117664_0 -1373117663_0 -1373117662_0 -1373117666_0 1373117666_0 1373117662_0 1373117663_0 1373117664_0 32828707_0 776546858#0_0 776546858#1_0 640989041_0 640989042#0_0 120285562_0">
<step time="49129530" speed="0.5" />
<step time="49133130" speed="1.0" />
</variableSpeedSign>
<variableSpeedSign id="incident_10" lanes="-640989042#3_0">
<step time="53188230" speed="0.5" />
<step time="53191830" speed="1.0" />
</variableSpeedSign>
<variableSpeedSign id="incident_11" lanes="131582587#0_0 131582587#1_0 131582587#2_0">
<step time="55351950" speed="0.2" />
<step time="55355550" speed="1.0" />
</variableSpeedSign>
<variableSpeedSign id="incident_12" lanes="218427500_0 162844465_0 865146658_0 235654815_0 443771077_0 244968839_0 443771078#0_0 443771078#1_0 441972547_0 441972550_0 -545874644_0 244968840_0 441972565_0 441972568#0_0 441972568#1_0 784766835_0 453921711_0 552176241_0 137191200_0 218427489_0 218427496#0_0 218427496#1_0 152056459#0_0 152056459#1_0 157868828#0_0 157868828#1_0 37830030#0_0 37830030#1_0 130771045_0 218427492_0">
<step time="54499770" speed="0.2" />
<step time="54503370" speed="1.0" />
</variableSpeedSign>
<variableSpeedSign id="incident_13" lanes="218427492_0 218427500_0">
<step time="54500010" speed="0.2" />
<step time="54503610" speed="1.0" />
</variableSpeedSign>
<variableSpeedSign id="incident_14" lanes="131582587#2_0 -131582587#2_0 -131582587#1_0 -131582587#0_0 -923392674_0 923392674_0 131582587#0_0">
<step time="55328700" speed="0.2" />
<step time="55332300" speed="1.0" />
</variableSpeedSign>
<variableSpeedSign id="incident_17" lanes="-158435382#0_0 1414149812_0 1434128365_0 1414149813_0 1434128368_0 1414149811_0 -109440977_0 -671108332_0 1414971773_0 1414971772_0 1434132663_0 1432098391_0 1414971777_0 1432098388_0 1432098389_0 1434132664_0 1414971774_0">
<step time="54302580" speed="0.5" />
<step time="54306180" speed="1.0" />
</variableSpeedSign>
<variableSpeedSign id="incident_18" lanes="1414971774_0 -1414971773_0 671108332_0 -671108332_0">
<step time="55179420" speed="0.5" />
<step time="55183020" speed="1.0" />
</variableSpeedSign>
<variableSpeedSign id="incident_20" lanes="-103886116#3_0">
<step time="50998890" speed="0.5" />
<step time="51002490" speed="1.0" />
</variableSpeedSign>
<variableSpeedSign id="incident_26" lanes="26045814_0 24525609_0 -827404306_0 827404317_0 30110137_0 829255503_0 29326034#0_0 29326034#1_0 -29326034#1_0">
<step time="55085910" speed="0.2" />
<step time="55089510" speed="1.0" />
</variableSpeedSign>
<variableSpeedSign id="incident_28" lanes="-24731529_0 24731528#1_0 783315506_0 377114759#3_0 -1419958808#0_0 25123138_0 1419958810_0 -25599314_0 1419958809_0">
<step time="50054370" speed="0.2" />
<step time="50057970" speed="1.0" />
</variableSpeedSign>
<variableSpeedSign id="incident_29" lanes="587231932_0 233571007_0 298560693_0 827658193_0 -1419337861_0 25130419_0 827659843_0 827660265_0 -545626663_0 25130784_0 377114759#2_0 377114759#3_0 -1419958808#0_0 25123138_0 1419958810_0 -25599314_0 1419958809_0">
<step time="55546200" speed="0.2" />
<step time="55549800" speed="1.0" />
</variableSpeedSign>
<variableSpeedSign id="incident_31" lanes="25443312#0_0 -25443312#0_0 -298560674_0 298560693_0 827658193_0 -1419337861_0 25130419_0 827659843_0 827660265_0 -545626663_0 25130784_0 377114759#2_0 547861716_0 25130416_0 587231932_0">
<step time="55508100" speed="0.5" />
<step time="55511700" speed="1.0" />
</variableSpeedSign>
<variableSpeedSign id="incident_32" lanes="19844462_0 357373641_0 507282426_0 37829704_0 217499927_0 26465744_0 1154241815_0 776492223_0 776492225_0 475351443_0 164634793_0 -1343959018_0 -1053563702_0 -1343959022_0 -1343959021_0 -22813412#1_0 -22813412#0_0 24822391_0 -178851717_0 -25517357_0 282987821_0 48373494_0 25517355_0 196629409_0 25517356_0 25029839#0_0 25029839#1_0 682601485_0 -25029835_0 -247248735_0 -247802004_0 -846486040_0 -846486041_0 4858923_0 25528427_0 203994674#0_0 203994674#1_0 203994675#0_0 203994675#1_0 25528428_0 1289049092_0 25517694_0">
<step time="42790830" speed="0.2" />
<step time="42794430" speed="1.0" />
</variableSpeedSign>
<variableSpeedSign id="incident_33" lanes="-1415139277_0 -21913283_0 21913283_0 1415139277_0 25516992#0_0 25516992#1_0 25516993_0 545626766_0 21913273_0 21913279_0 253390125_0 -664281394_0 368325433_0 368325434_0 295356990_0 24187120_0 247800797_0 1173073665_0 24187119_0 1173073667_0 139578527_0 47384265_0 216987193_0 216987194_0 1415230742_0 688721094_0 688721095_0 216987195_0 1385350538_0 216988891_0 907862380_0 21896370#0_0 21896370#1_0 29325724_0 126106951_0 1385346725_0 299714315_0 372635876_0 372635877_0 372636138_0 743661052_0 1121494298_0 294809235_0 1121494358_0 19844375_0 19844462_0">
<step time="42791310" speed="0.2" />
<step time="42794910" speed="1.0" />
</variableSpeedSign>
<variableSpeedSign id="incident_34" lanes="825884256_0 825883884_0 -1414315076_0 -292341515_0 292341515_0">
<step time="55429380" speed="0.2" />
<step time="55432980" speed="1.0" />
</variableSpeedSign>
<variableSpeedSign id="incident_35" lanes="292341515_0 1414315076_0">
<step time="44192130" speed="0.2" />
<step time="44195730" speed="1.0" />
</variableSpeedSign>
<variableSpeedSign id="incident_36" lanes="746112317_0 746112316_0 1069512637_0 294406728_0 1268783544#0_0 1268783544#1_0 713711826_0 218323974#0_0 218323974#1_0 218323971#0_0 218323971#1_0 85105737_0 218324005_0 552844882_0 218324009_0 27090960_0 218323984_0 218323992_0 29357653_0 22727329_0 21890560#0_0 21890560#1_0 21890560#2_0 825884256_0 825883884_0 -1414315076_0 -292341515_0 292341515_0">
<step time="44196690" speed="0.2" />
<step time="44200290" speed="1.0" />
</variableSpeedSign>
<variableSpeedSign id="incident_37" lanes="599988173_0 263308271_0 720475830_0 29260567_0 552232872_0 720665853_0">
<step time="48088740" speed="0.2" />
<step time="48092340" speed="1.0" />
</variableSpeedSign>
<variableSpeedSign id="incident_38" lanes="720665853_0 599987487_0 720665852_0 751751048_0 -751751048_0 -720665852_0 -599987487_0 -720665853_0 -552232872_0 -29260567_0 -720475830_0 -263308271_0 -599988173_0 599988173_0">
<step time="48088500" speed="0.2" />
<step time="48092100" speed="1.0" />
</variableSpeedSign>
<variableSpeedSign id="incident_39" lanes="549206216_0 723794491#0_0 -723794491#0_0 -549206216_0 -216222471_0 -216222466_0 -82754545_0 -552832247_0 -552832248_0 -216222472#1_0 216222472#1_0 552832248_0 552832247_0 82754545_0 216222466_0">
<step time="55183020" speed="0.5" />
<step time="55186620" speed="1.0" />
</variableSpeedSign>
<variableSpeedSign id="incident_40" lanes="288644083_0">
<step time="55529220" speed="0.5" />
<step time="55532820" speed="1.0" />
</variableSpeedSign>
<variableSpeedSign id="incident_41" lanes="720920947_0">
<step time="53621580" speed="0.5" />
<step time="53625180" speed="1.0" />
</variableSpeedSign>
<variableSpeedSign id="incident_42" lanes="-217157712#0_0 -713679278#1_0 -713679278#0_0 -288644080_0 -713823374_0 -1410121022_0 1410121023_0 713823375_0 713679281#0_0 713679281#1_0 288644083_0">
<step time="47064450" speed="0.5" />
<step time="47068050" speed="1.0" />
</variableSpeedSign>
<variableSpeedSign id="incident_43" lanes="141368701_0 -141368701_0 25486794#0_0 25486794#1_0 720920946_0 158253216_0 720908343_0 93227338_0 720908344_0 358565727_0 720908345_0 720908346_0 720908347_0 720908350_0 720908352_0 720908348_0 720672957#0_0 720672957#1_0 720672956_0 82800634_0 713679279_0 1410121021_0 1410121024_0 -1410121020#1_0 -1410121020#0_0 -743747628_0 -743747629_0 -217157711_0 -217157712#1_0 -217157712#0_0">
<step time="53191980" speed="0.2" />
<step time="53195580" speed="1.0" />
</variableSpeedSign>
<variableSpeedSign id="incident_44" lanes="-217157712#0_0 217157712#0_0 217157712#1_0 217157711_0 743747629_0 743747628_0 1410121020#0_0 1410121020#1_0 306727433_0 714139855#0_0 714139855#1_0 -82800617_0 -720672956_0 -720672957#1_0 -720672957#0_0 -720908348_0 -720908352_0 -720908350_0 -720908347_0 -720908346_0 -720908345_0 -358565727_0 -720908344_0 93227344#0_0 93227344#1_0 720908342_0 82865021_0 158253219_0 720920947_0">
<step time="51748380" speed="0.2" />
<step time="51751980" speed="1.0" />
</variableSpeedSign>
<variableSpeedSign id="incident_45" lanes="-1410121020#1_0 -1410121020#0_0 -743747628_0">
<step time="47064450" speed="0.5" />
<step time="47068050" speed="1.0" />
</variableSpeedSign>
<variableSpeedSign id="incident_46" lanes="-720908346_0 -720908345_0 -358565727_0 1212688809_0 29271776_0 720908340_0 720908339_0 720908338_0 720908337_0 720735502#0_0 -720735502#0_0 -720908337_0 -720908338_0 -720908339_0 -720908340_0 -29271776_0">
<step time="55424880" speed="0.2" />
<step time="55428480" speed="1.0" />
</variableSpeedSign>
<variableSpeedSign id="incident_47" lanes="220332033_0 552832253_0 552832254_0 -723913795_0 -723913796#1_0 -723913796#0_0 -216130156_0 -723913797_0 -713841943_0 -713841944_0 713841944_0 713841943_0">
<step time="47907335" speed="0.5" />
<step time="47910935" speed="1.0" />
</variableSpeedSign>
<variableSpeedSign id="incident_48" lanes="552832250_0 704375067_0 713841944_0 713841943_0 723913797_0 216130156_0 723913796#0_0 723913796#1_0 723913795_0 220332032_0">
<step time="47907335" speed="0.5" />
<step time="47910935" speed="1.0" />
</variableSpeedSign>
<variableSpeedSign id="incident_50" lanes="107322756_0 -997754509#0_0 -553071157_0 -553071156_0 -553071155_0 -553066829#2_0 -1396610725_0 -894004622_0 161909008_0">
<step time="53813340" speed="0.2" />
<step time="53816940" speed="1.0" />
</variableSpeedSign>
<variableSpeedSign id="incident_51" lanes="161909008_0 -153920527#1_0 -153920527#0_0">
<step time="53819580" speed="0.2" />
<step time="53823180" speed="1.0" />
</variableSpeedSign>
<variableSpeedSign id="incident_52" lanes="-26197681_0 -553132798_0 -224682938_0 1189982936_0 26197682_0 -26197682_0 -1189982936_0 224682938_0">
<step time="54317550" speed="0.5" />
<step time="54321150" speed="1.0" />
</variableSpeedSign>
<variableSpeedSign id="incident_53" lanes="1153502359_0 1153502357_0 658151035_0 1153502323_0 1153502324_0 1153502327_0 1293631442#1_0">
<step time="51623700" speed="0.2" />
<step time="76201200" speed="1.0" />
</variableSpeedSign>
<variableSpeedSign id="incident_54" lanes="1153502353_0 1153502359_0">
<step time="54199950" speed="0.2" />
<step time="76201200" speed="1.0" />
</variableSpeedSign>
<variableSpeedSign id="incident_55" lanes="1293631442#1_0 553153912_0 224510677_0 553153911_0 -553153911_0 -224510677_0 -553153912_0 -1293631442#1_0 -1293631442#0_0 -224510684_0 -1373706131_0 -1293631443_0 -1293631444_0 1373706134_0 -1310622836_0 -1329205054_0 -1310622837_0 -658151045_0 1353937415_0 1353937417_0 1356267763_0 1153502353_0">
<step time="45582480" speed="0.2" />
<step time="76201200" speed="1.0" />
</variableSpeedSign>
<variableSpeedSign id="incident_56" lanes="-1310622841_0 -1310622840_0 -1239867135_0 -1416079427_0 1416079412_0 1416079407_0 -1241980137_0 795748790#0_0 795748790#1_0 1416568975_0 1416568413_0 1416568414_0 47461649#0_0 47461649#1_0 925608678_0 925608677_0 795748788_0 47461638#0_0 47461638#1_0 -533071452_0 -553153645_0 -553153646_0 -533071451_0 -925879572_0 -1429454931_0">
<step time="53945610" speed="0.2" />
<step time="53949210" speed="1.0" />
</variableSpeedSign>
<variableSpeedSign id="incident_57" lanes="-658151034_0 -1429036118_0 -1429036117_0 658151042_0 658151039_0 -1356267764_0 1356267764_0 -658151039_0">
<step time="55429770" speed="0.2" />
<step time="76201200" speed="1.0" />
</variableSpeedSign>
<variableSpeedSign id="incident_58" lanes="282328445#1_0 -282328445#1_0 282328439_0 229646812#0_0 -229646812#0_0">
<step time="55550520" speed="0.2" />
<step time="55551870" speed="1.0" />
</variableSpeedSign>
<variableSpeedSign id="incident_59" lanes="-1416079412_0 1416079412_0 1416079407_0 -1241980137_0 795748790#0_0 795748790#1_0 1416568975_0 1416568413_0 47461642_0 668814993_0 -668814993_0">
<step time="54906660" speed="0.2" />
<step time="54910260" speed="1.0" />
</variableSpeedSign>
<variableSpeedSign id="incident_60" lanes="623047820_0 1333743353_0 1316624232_0 -1333743356_0 1316624233_0 1333743355_0 1333743352_0 1333743354_0 471910963_0 504287915_0 378869524_0 140855412_0 140855413#0_0 140855413#1_0 405498225_0 405498228_0 405498220_0 140745338_0 484940115_0 378869523_0 378869518_0 623047849_0 487016142_0 -1333743352_0 -1333743355_0 -1316624233_0 1333743356_0 -1316624232_0 -1333743353_0 -623047820_0 -854896247_0 518448708_0 456153425_0 790292820_0 553075706_0 79057476_0 62200807_0 553075708_0 732685241_0 553075707_0 79057477_0 27121913_0 788425535#0_0 788425535#1_0 294888799_0 553130700_0 1223403257_0 553130699_0 623047786_0 623047781_0 20194520_0 298803245_0 79208292_0 79208267_0 -553132795_0 -553132794_0 -533071450_0 -658151034_0">
<step time="55282140" speed="0.2" />
<step time="76201200" speed="1.0" />
</variableSpeedSign>
<variableSpeedSign id="incident_61" lanes="177077704_0 946005751_0 -946005751_0 -177077704_0 -245534939#1_0 -245534939#0_0 -886530910_0 -1391625530_0 888811146_0 888811145_0 177077716#0_0 177077716#1_0 177077716#2_0 -1391625527_0 -177077719_0 177077707#0_0 -177077707#0_0 177077719_0">
<step time="45403860" speed="0.2" />
<step time="45407460" speed="1.0" />
</variableSpeedSign>
<variableSpeedSign id="incident_62" lanes="177077719_0 1391625527_0 -177077716#2_0 -177077716#1_0 -177077716#0_0 -888811145_0 -888811146_0 1391625530_0 886530910_0 245534939#0_0 245534939#1_0 177077704_0 946005751_0 -946005751_0">
<step time="44803200" speed="0.2" />
<step time="44806800" speed="1.0" />
</variableSpeedSign>
</additional>
</additional>