<?xml version="1.0" encoding="UTF-8"?>

<!-- generated on 2025-10-05 02:17:25.993659 by randomTrips.py v1_24_0+0000-b72eb3fabc8
<configuration>
    <net-file value="krakow_traffic.net.xml"/>
    <route-file value="krakow_traffic.rou.xml"/>
    <min-distance value="1000.0"/>
</configuration>
-->

<routes xmlns:xsi="http://www.w3.org/2001/XMLSchema-instance" xsi:noNamespaceSchemaLocation="http://sumo.dlr.de/xsd/routes_file.xsd">
    <trip id="0" depart="0.00" from="229076157" to="-1131620081"/>
    <trip id="1" depart="1.00" from="-45835171#0" to="-345738486"/>
    <trip id="2" depart="2.00" from="29401317#1" to="26037139#0"/>
    <trip id="3" depart="3.00" from="689359241#4" to="-142843322#0"/>
    <trip id="4" depart="4.00" from="1084312608" to="-116707326#0"/>
    <trip id="5" depart="5.00" from="-30010057#4" to="1410991533"/>
    <trip id="6" depart="6.00" from="-111856410#0" to="-29564355#0"/>
    <trip id="7" depart="7.00" from="23778348#2" to="169142374#1"/>
    <trip id="8" depart="8.00" from="-304141353" to="216864914#0"/>
    <trip id="9" depart="9.00" from="41937365#0" to="-104005321"/>
    <trip id="10" depart="10.00" from="41024620" to="27021865"/>
    <trip id="11" depart="11.00" from="-74519030" to="-251399004"/>
    <trip id="12" depart="12.00" from="830758487" to="-82215368#0"/>
    <trip id="13" depart="13.00" from="-1419903237#1" to="-156307880#1"/>
    <trip id="14" depart="14.00" from="54051799#1" to="218441460"/>
    <trip id="15" depart="15.00" from="41151876" to="29752385#2"/>
    <trip id="16" depart="16.00" from="1431090282" to="906770625"/>
    <trip id="17" depart="17.00" from="-863069291" to="177077704"/>
    <trip id="18" depart="18.00" from="45835171#6" to="227995248#0"/>
    <trip id="19" depart="19.00" from="55385427" to="209180315#1"/>
    <trip id="20" depart="20.00" from="264023444#0" to="-1238156105#1"/>
    <trip id="21" depart="21.00" from="-31874642" to="-630925379"/>
    <trip id="22" depart="22.00" from="-1361720292" to="-38261091#1"/>
    <trip id="23" depart="23.00" from="-151496505" to="-554520196"/>
    <trip id="24" depart="24.00" from="22810659" to="-94816720#1"/>
    <trip id="25" depart="25.00" from="-83115700" to="-315052765#1"/>
    <trip id="26" depart="26.00" from="-42404078" to="80662908"/>
    <trip id="27" depart="27.00" from="235887149" to="220579881#2"/>
    <trip id="28" depart="28.00" from="-253291562#1" to="297443150"/>
    <trip id="29" depart="29.00" from="-247802003" to="1026251062"/>
    <trip id="30" depart="30.00" from="94816716" to="24202418#0"/>
    <trip id="31" depart="31.00" from="161679043#0" to="26302952"/>
    <trip id="32" depart="32.00" from="51231491" to="377207921"/>
    <trip id="33" depart="33.00" from="-31876421#1" to="-118446431"/>
    <trip id="34" depart="34.00" from="-681557133" to="-534588398"/>
    <trip id="35" depart="35.00" from="-29401363" to="823168860"/>
    <trip id="36" depart="36.00" from="621576554" to="-736573250"/>
    <trip id="37" depart="37.00" from="24191691" to="1084397952"/>
    <trip id="38" depart="38.00" from="735276552" to="1273525767"/>
    <trip id="39" depart="39.00" from="-42289989#4" to="-41937634#0"/>
    <trip id="40" depart="40.00" from="166679341" to="-499244137"/>
    <trip id="41" depart="41.00" from="19801180" to="720475825#0"/>
    <trip id="42" depart="42.00" from="-995869414#2" to="-338179045#0"/>
    <trip id="43" depart="43.00" from="991458810" to="1418889250"/>
    <trip id="44" depart="44.00" from="-1415595286" to="-1247153050#0"/>
    <trip id="45" depart="45.00" from="-161296957#4" to="232097169#0"/>
    <trip id="46" depart="46.00" from="380932625#0" to="1160783768"/>
    <trip id="47" depart="47.00" from="-1296323324" to="1036671643"/>
    <trip id="48" depart="48.00" from="980451702" to="155064561"/>
    <trip id="49" depart="49.00" from="878860212#0" to="578646418"/>
    <trip id="50" depart="50.00" from="-1069276655#2" to="29385949"/>
    <trip id="51" depart="51.00" from="25443312#2" to="160506462"/>
    <trip id="52" depart="52.00" from="-42404066#1" to="24207687"/>
    <trip id="53" depart="53.00" from="-163263753" to="1199356122"/>
    <trip id="54" depart="54.00" from="1188485885#0" to="830021722"/>
    <trip id="55" depart="55.00" from="619470093" to="-504163054#0"/>
    <trip id="56" depart="56.00" from="1332487124#1" to="-26770028#0"/>
    <trip id="57" depart="57.00" from="731987969" to="625298184"/>
    <trip id="58" depart="58.00" from="-55955745#1" to="24164608#0"/>
    <trip id="59" depart="59.00" from="217123182" to="-24821355"/>
    <trip id="60" depart="60.00" from="322736559" to="162790323"/>
    <trip id="61" depart="61.00" from="354305469" to="156554578"/>
    <trip id="62" depart="62.00" from="-101162129#0" to="-77697359"/>
    <trip id="63" depart="63.00" from="-109374005" to="791304064"/>
    <trip id="64" depart="64.00" from="625298182#0" to="5095912#1"/>
    <trip id="65" depart="65.00" from="-623047760" to="-1299058034"/>
    <trip id="66" depart="66.00" from="625139211" to="827665883"/>
    <trip id="67" depart="67.00" from="-1380423456" to="1354766774"/>
    <trip id="68" depart="68.00" from="-1315948507" to="34119674#0"/>
    <trip id="69" depart="69.00" from="331451414" to="-216993331#1"/>
    <trip id="70" depart="70.00" from="1250443452" to="173382661"/>
    <trip id="71" depart="71.00" from="-42290700" to="633658000#1"/>
    <trip id="72" depart="72.00" from="1088266593#1" to="-31874378"/>
    <trip id="73" depart="73.00" from="146196598#0" to="29752386#5"/>
    <trip id="74" depart="74.00" from="972795128#0" to="247803157#0"/>
    <trip id="75" depart="75.00" from="1123094767" to="1435314917"/>
    <trip id="76" depart="76.00" from="-176933593" to="-35092943#0"/>
    <trip id="77" depart="77.00" from="-741265830" to="216696188"/>
    <trip id="78" depart="78.00" from="-319911501#0" to="-339876293"/>
    <trip id="79" depart="79.00" from="-1320352411" to="235654811"/>
    <trip id="80" depart="80.00" from="-31876419#1" to="727415220#1"/>
    <trip id="81" depart="81.00" from="553076430" to="-1360401513"/>
    <trip id="82" depart="82.00" from="-343058309#1" to="25528740"/>
    <trip id="83" depart="83.00" from="-29597889#1" to="-221480599#1"/>
    <trip id="84" depart="84.00" from="7953725" to="19844647#0"/>
    <trip id="85" depart="85.00" from="124128949" to="393891471"/>
    <trip id="86" depart="86.00" from="41218081" to="-29248604"/>
    <trip id="87" depart="87.00" from="-1434008976" to="119050630#0"/>
    <trip id="88" depart="88.00" from="1089072940#1" to="129704683#1"/>
    <trip id="89" depart="89.00" from="29259946#2" to="25872991#1"/>
    <trip id="90" depart="90.00" from="931556865" to="-157933890#0"/>
    <trip id="91" depart="91.00" from="101447028#1" to="-82800628#0"/>
    <trip id="92" depart="92.00" from="55385418#1" to="-42385436"/>
    <trip id="93" depart="93.00" from="-26486206" to="1240618079"/>
    <trip id="94" depart="94.00" from="1083616220" to="-55694417#0"/>
    <trip id="95" depart="95.00" from="-38311274#4" to="77697364#0"/>
    <trip id="96" depart="96.00" from="1146670595" to="581164411#0"/>
    <trip id="97" depart="97.00" from="156831463#1" to="-1268473723"/>
    <trip id="98" depart="98.00" from="997754503" to="533071452"/>
    <trip id="99" depart="99.00" from="543762587" to="-26143570"/>
    <trip id="100" depart="100.00" from="128468729#0" to="-31876762#0"/>
    <trip id="101" depart="101.00" from="1009370439" to="-130193049#0"/>
    <trip id="102" depart="102.00" from="-869862412#1" to="932976735"/>
    <trip id="103" depart="103.00" from="-423780783" to="39230617#0"/>
    <trip id="104" depart="104.00" from="1190141917" to="1163534005"/>
    <trip id="105" depart="105.00" from="830830065#0" to="977410095"/>
    <trip id="106" depart="106.00" from="160333849#0" to="29333779"/>
    <trip id="107" depart="107.00" from="-23825295#1" to="-689359241#1"/>
    <trip id="108" depart="108.00" from="85866469" to="214333542#1"/>
    <trip id="109" depart="109.00" from="148642118" to="31876419#1"/>
    <trip id="110" depart="110.00" from="-127296097" to="216548861#1"/>
    <trip id="111" depart="111.00" from="1337933948" to="55462275"/>
    <trip id="112" depart="112.00" from="-241803388" to="837326437"/>
    <trip id="113" depart="113.00" from="-1362700019#0" to="-28593666"/>
    <trip id="114" depart="114.00" from="21044463#1" to="26000614"/>
    <trip id="115" depart="115.00" from="-337969449" to="-19801540#1"/>
    <trip id="116" depart="116.00" from="683706273#1" to="-41937369#0"/>
    <trip id="117" depart="117.00" from="209286057#0" to="22813368"/>
    <trip id="118" depart="118.00" from="1077738447" to="216234146#1"/>
    <trip id="119" depart="119.00" from="139578527" to="80445222"/>
    <trip id="120" depart="120.00" from="-292212175" to="29299882#1"/>
    <trip id="121" depart="121.00" from="-34373160#2" to="1085097005"/>
    <trip id="122" depart="122.00" from="25031296" to="-710377527"/>
    <trip id="123" depart="123.00" from="-683370248" to="330943890"/>
    <trip id="124" depart="124.00" from="-133052844#1" to="127296101"/>
    <trip id="125" depart="125.00" from="995528196#0" to="98494273"/>
    <trip id="126" depart="126.00" from="-1332487124#0" to="-31876418#0"/>
    <trip id="127" depart="127.00" from="-423780783" to="802226389"/>
    <trip id="128" depart="128.00" from="635300082#0" to="674991628"/>
    <trip id="129" depart="129.00" from="-830896006" to="-253294274"/>
    <trip id="130" depart="130.00" from="475351444" to="280506940#0"/>
    <trip id="131" depart="131.00" from="217155492#1" to="942535834"/>
    <trip id="132" depart="132.00" from="24157208" to="-1052724783"/>
    <trip id="133" depart="133.00" from="43168207#1" to="-708056658"/>
    <trip id="134" depart="134.00" from="24526367" to="810116903"/>
    <trip id="135" depart="135.00" from="-204346851" to="-185687960"/>
    <trip id="136" depart="136.00" from="-157933890#1" to="177231201#0"/>
    <trip id="137" depart="137.00" from="-448929415" to="219171982#1"/>
    <trip id="138" depart="138.00" from="280266637#0" to="-299982923"/>
    <trip id="139" depart="139.00" from="227338097" to="-506112062#0"/>
    <trip id="140" depart="140.00" from="1294741880" to="727260598"/>
    <trip id="141" depart="141.00" from="533275330#3" to="-149948162"/>
    <trip id="142" depart="142.00" from="1089072940#1" to="-553132795"/>
    <trip id="143" depart="143.00" from="-1020103253#1" to="367503345#0"/>
    <trip id="144" depart="144.00" from="228454296" to="-487702824"/>
    <trip id="145" depart="145.00" from="29597889#5" to="176933580#1"/>
    <trip id="146" depart="146.00" from="1093349226" to="-106872585#0"/>
    <trip id="147" depart="147.00" from="-1344928185#3" to="686210538"/>
    <trip id="148" depart="148.00" from="720378007" to="171060070#4"/>
    <trip id="149" depart="149.00" from="4758410#0" to="216222466"/>
    <trip id="150" depart="150.00" from="-22813601#1" to="-216651325#2"/>
    <trip id="151" depart="151.00" from="-625139216#1" to="720665852"/>
    <trip id="152" depart="152.00" from="391116898" to="578611854"/>
    <trip id="153" depart="153.00" from="715375231#1" to="-31764176#0"/>
    <trip id="154" depart="154.00" from="-38311270#4" to="-163751570#0"/>
    <trip id="155" depart="155.00" from="1024311345#1" to="228454296"/>
    <trip id="156" depart="156.00" from="-23825058#0" to="79208292"/>
    <trip id="157" depart="157.00" from="56019712#0" to="914866892"/>
    <trip id="158" depart="158.00" from="422587146" to="682045122"/>
    <trip id="159" depart="159.00" from="-1113718372" to="30599351#3"/>
    <trip id="160" depart="160.00" from="-723620198" to="795748777"/>
    <trip id="161" depart="161.00" from="40764848#1" to="597451785"/>
    <trip id="162" depart="162.00" from="422104488" to="-530874706"/>
    <trip id="163" depart="163.00" from="376694602#0" to="-173297621#0"/>
    <trip id="164" depart="164.00" from="59195623#1" to="566492507"/>
    <trip id="165" depart="165.00" from="-307695362" to="455194082#1"/>
    <trip id="166" depart="166.00" from="120285564" to="-720463636"/>
    <trip id="167" depart="167.00" from="388107109" to="-362454246"/>
    <trip id="168" depart="168.00" from="-1110044944" to="-29333639#0"/>
    <trip id="169" depart="169.00" from="855794385" to="-55955748#2"/>
    <trip id="170" depart="170.00" from="229225609" to="1092048018#1"/>
    <trip id="171" depart="171.00" from="923010834" to="160141119#0"/>
    <trip id="172" depart="172.00" from="80445233#0" to="-185687921"/>
    <trip id="173" depart="173.00" from="87527964" to="-26769672"/>
    <trip id="174" depart="174.00" from="835875764" to="-51231487#2"/>
    <trip id="175" depart="175.00" from="-160113021" to="119892313"/>
    <trip id="176" depart="176.00" from="292511406" to="-735276544"/>
    <trip id="177" depart="177.00" from="216874328#1" to="1419944279"/>
    <trip id="178" depart="178.00" from="-91682909" to="207213353#0"/>
    <trip id="179" depart="179.00" from="-405594768#1" to="288109460#0"/>
    <trip id="180" depart="180.00" from="-101447026#1" to="78164497"/>
    <trip id="181" depart="181.00" from="145470507#1" to="29350018#2"/>
    <trip id="182" depart="182.00" from="-827830765" to="-1359701499#1"/>
    <trip id="183" depart="183.00" from="24558923" to="-80025650"/>
    <trip id="184" depart="184.00" from="-674291822#0" to="552856953"/>
    <trip id="185" depart="185.00" from="28238734" to="-713092110"/>
    <trip id="186" depart="186.00" from="-629020889#3" to="1111088832"/>
    <trip id="187" depart="187.00" from="101439254#1" to="-683706273#0"/>
    <trip id="188" depart="188.00" from="-187287047" to="1155798991"/>
    <trip id="189" depart="189.00" from="80576572" to="26099005"/>
    <trip id="190" depart="190.00" from="720089156" to="225027384"/>
    <trip id="191" depart="191.00" from="-567548252" to="173215863#1"/>
    <trip id="192" depart="192.00" from="-1009738248#0" to="-623047745"/>
    <trip id="193" depart="193.00" from="1095635149#2" to="215671496"/>
    <trip id="194" depart="194.00" from="24164605" to="1290321743"/>
    <trip id="195" depart="195.00" from="114324810#0" to="-31876761"/>
    <trip id="196" depart="196.00" from="1244564143" to="721077505"/>
    <trip id="197" depart="197.00" from="391115780#1" to="-26295130#2"/>
    <trip id="198" depart="198.00" from="-1376134754#0" to="1429649720"/>
    <trip id="199" depart="199.00" from="22690772#0" to="-813747024"/>
    <trip id="200" depart="200.00" from="439069573" to="329646889"/>
    <trip id="201" depart="201.00" from="25049111" to="-350876286"/>
    <trip id="202" depart="202.00" from="-368325434" to="131753643#0"/>
    <trip id="203" depart="203.00" from="544929656" to="-1362850147"/>
    <trip id="204" depart="204.00" from="1069276655#1" to="233862467"/>
    <trip id="205" depart="205.00" from="-27128256#0" to="267130189#0"/>
    <trip id="206" depart="206.00" from="1315554679" to="-41151862#0"/>
    <trip id="207" depart="207.00" from="24202419#3" to="-103307174#1"/>
    <trip id="208" depart="208.00" from="306733319" to="365151259"/>
    <trip id="209" depart="209.00" from="-157868816" to="1173261554"/>
    <trip id="210" depart="210.00" from="-25732173" to="832568459#1"/>
    <trip id="211" depart="211.00" from="1373390028" to="-1266913077"/>
    <trip id="212" depart="212.00" from="-38283822#2" to="553065018#1"/>
    <trip id="213" depart="213.00" from="1194083481" to="42403918"/>
    <trip id="214" depart="214.00" from="24805107" to="943235561"/>
    <trip id="215" depart="215.00" from="21146533#1" to="828823727"/>
    <trip id="216" depart="216.00" from="687695011" to="224510679#1"/>
    <trip id="217" depart="217.00" from="28238723#11" to="141069831"/>
    <trip id="218" depart="218.00" from="46135810#0" to="173134974#1"/>
    <trip id="219" depart="219.00" from="710377531" to="315178119"/>
    <trip id="220" depart="220.00" from="124811263" to="-46619385#3"/>
    <trip id="221" depart="221.00" from="-377498990#0" to="240869998"/>
    <trip id="222" depart="222.00" from="331451414" to="148469646"/>
    <trip id="223" depart="223.00" from="221329671" to="-553056245"/>
    <trip id="224" depart="224.00" from="-1359849752" to="-617698924#0"/>
    <trip id="225" depart="225.00" from="-448005247#0" to="-75391391#3"/>
    <trip id="226" depart="226.00" from="148073475#2" to="-232097168"/>
    <trip id="227" depart="227.00" from="-327687497#0" to="26486568"/>
    <trip id="228" depart="228.00" from="26463390#1" to="-132173589"/>
    <trip id="229" depart="229.00" from="103307161#1" to="166270723"/>
    <trip id="230" depart="230.00" from="107268174" to="-306690899#0"/>
    <trip id="231" depart="231.00" from="1079578929" to="725697217"/>
    <trip id="232" depart="232.00" from="197218049" to="26536183"/>
    <trip id="233" depart="233.00" from="552853686" to="352628259"/>
    <trip id="234" depart="234.00" from="-88718138#2" to="-1036671635#0"/>
    <trip id="235" depart="235.00" from="-791359108" to="331451417"/>
    <trip id="236" depart="236.00" from="550802630" to="829894545#1"/>
    <trip id="237" depart="237.00" from="107756259" to="31875663"/>
    <trip id="238" depart="238.00" from="153776606" to="218432841#0"/>
    <trip id="239" depart="239.00" from="-304948517" to="-338510879"/>
    <trip id="240" depart="240.00" from="1115777658" to="-116236343#0"/>
    <trip id="241" depart="241.00" from="-735307652" to="26197688"/>
    <trip id="242" depart="242.00" from="1021749730" to="-25994866#0"/>
    <trip id="243" depart="243.00" from="1215532997" to="-216657967#1"/>
    <trip id="244" depart="244.00" from="21922477#0" to="-1147937012"/>
    <trip id="245" depart="245.00" from="-959898923" to="192121782"/>
    <trip id="246" depart="246.00" from="-1123612080" to="24329788"/>
    <trip id="247" depart="247.00" from="-209286060" to="128241878"/>
    <trip id="248" depart="248.00" from="-123728171#3" to="102453729"/>
    <trip id="249" depart="249.00" from="-29431230#3" to="-788425541#0"/>
    <trip id="250" depart="250.00" from="31876760" to="102453729"/>
    <trip id="251" depart="251.00" from="30815112" to="5095916#6"/>
    <trip id="252" depart="252.00" from="-398258813#1" to="-1411273152"/>
    <trip id="253" depart="253.00" from="-109374002" to="162843071#0"/>
    <trip id="254" depart="254.00" from="999607696#1" to="-846967317"/>
    <trip id="255" depart="255.00" from="238150430#2" to="38316370"/>
    <trip id="256" depart="256.00" from="239488609" to="33202615"/>
    <trip id="257" depart="257.00" from="82749533" to="-29564558#1"/>
    <trip id="258" depart="258.00" from="-185687862#1" to="25529926#1"/>
    <trip id="259" depart="259.00" from="172470298" to="-332669420#3"/>
    <trip id="260" depart="260.00" from="26302146" to="356970697#0"/>
    <trip id="261" depart="261.00" from="-25070802#0" to="219427702"/>
    <trip id="262" depart="262.00" from="300856026#0" to="-184355742#0"/>
    <trip id="263" depart="263.00" from="440555426" to="856461409"/>
    <trip id="264" depart="264.00" from="-159716451" to="-1136490587"/>
    <trip id="265" depart="265.00" from="-654797642#0" to="26099280"/>
    <trip id="266" depart="266.00" from="831145416" to="1087324496#1"/>
    <trip id="267" depart="267.00" from="277117078" to="-1368139270"/>
    <trip id="268" depart="268.00" from="260042040" to="231720764#0"/>
    <trip id="269" depart="269.00" from="-153672339#1" to="371130477#0"/>
    <trip id="270" depart="270.00" from="545626100" to="218327060#2"/>
    <trip id="271" depart="271.00" from="-177077704" to="932235205"/>
    <trip id="272" depart="272.00" from="365612143" to="-83334199#1"/>
    <trip id="273" depart="273.00" from="109375921" to="-993143297"/>
    <trip id="274" depart="274.00" from="1353008221" to="-82873651"/>
    <trip id="275" depart="275.00" from="544616476#5" to="471256293"/>
    <trip id="276" depart="276.00" from="-156415146#2" to="837326437"/>
    <trip id="277" depart="277.00" from="22810626#0" to="503062428#0"/>
    <trip id="278" depart="278.00" from="26473132#0" to="1202078817"/>
    <trip id="279" depart="279.00" from="29356176" to="857823839#1"/>
    <trip id="280" depart="280.00" from="-43599095#1" to="440528535#0"/>
    <trip id="281" depart="281.00" from="144996253" to="1348309066"/>
    <trip id="282" depart="282.00" from="1115224897" to="298579877#4"/>
    <trip id="283" depart="283.00" from="-42813604" to="553153648#0"/>
    <trip id="284" depart="284.00" from="46135810#5" to="-1427101268"/>
    <trip id="285" depart="285.00" from="637237256#3" to="-41151854"/>
    <trip id="286" depart="286.00" from="1205427563" to="221329671"/>
    <trip id="287" depart="287.00" from="-869862412#1" to="-1159680000"/>
    <trip id="288" depart="288.00" from="54569758" to="-277424362#1"/>
    <trip id="289" depart="289.00" from="-294883300#4" to="41937365#2"/>
    <trip id="290" depart="290.00" from="-74521348" to="677629002#0"/>
    <trip id="291" depart="291.00" from="26332307#1" to="-553124321"/>
    <trip id="292" depart="292.00" from="-1056268008#0" to="828279430"/>
    <trip id="293" depart="293.00" from="-1380089316" to="29358957#5"/>
    <trip id="294" depart="294.00" from="1295209284" to="338492810#2"/>
    <trip id="295" depart="295.00" from="260042040" to="24432575"/>
    <trip id="296" depart="296.00" from="1303282105" to="40876513#1"/>
    <trip id="297" depart="297.00" from="-1419926794" to="-34119853"/>
    <trip id="298" depart="298.00" from="26037138#1" to="-72050011#1"/>
    <trip id="299" depart="299.00" from="193161070#0" to="1315683045"/>
    <trip id="300" depart="300.00" from="1419899412" to="117386959"/>
    <trip id="301" depart="301.00" from="29986075#0" to="-80262066#0"/>
    <trip id="302" depart="302.00" from="26380686" to="-547918806"/>
    <trip id="303" depart="303.00" from="-390046799" to="-19801699"/>
    <trip id="304" depart="304.00" from="-26769671" to="-19801361#0"/>
    <trip id="305" depart="305.00" from="1429788574" to="345642268"/>
    <trip id="306" depart="306.00" from="-26302959#1" to="-331111567#1"/>
    <trip id="307" depart="307.00" from="128241862#0" to="294888797"/>
    <trip id="308" depart="308.00" from="911963721" to="152056459#0"/>
    <trip id="309" depart="309.00" from="-506878144" to="-161635938"/>
    <trip id="310" depart="310.00" from="-270528063#1" to="-361010831"/>
    <trip id="311" depart="311.00" from="-26097784#0" to="-1081337533"/>
    <trip id="312" depart="312.00" from="1426409341" to="-552856951"/>
    <trip id="313" depart="313.00" from="903049596" to="177231201#4"/>
    <trip id="314" depart="314.00" from="26295139#0" to="-21612464#0"/>
    <trip id="315" depart="315.00" from="573263789" to="1362611174"/>
    <trip id="316" depart="316.00" from="598460561" to="20198782"/>
    <trip id="317" depart="317.00" from="122820069" to="120510358"/>
    <trip id="318" depart="318.00" from="-26295870#1" to="-127193748"/>
    <trip id="319" depart="319.00" from="80662980" to="1327815137"/>
    <trip id="320" depart="320.00" from="447662460#1" to="1093202257"/>
    <trip id="321" depart="321.00" from="-1336421108#0" to="233620425#3"/>
    <trip id="322" depart="322.00" from="-125615700" to="-244968830#0"/>
    <trip id="323" depart="323.00" from="169012975" to="-720089152"/>
    <trip id="324" depart="324.00" from="970236267" to="-195134138"/>
    <trip id="325" depart="325.00" from="331054040#0" to="219273203#0"/>
    <trip id="326" depart="326.00" from="37834150" to="-353285276#1"/>
    <trip id="327" depart="327.00" from="1395079203" to="124686643#2"/>
    <trip id="328" depart="328.00" from="114602369" to="57685067#2"/>
    <trip id="329" depart="329.00" from="950939113" to="-720463644#0"/>
    <trip id="330" depart="330.00" from="219054389" to="220579898"/>
    <trip id="331" depart="331.00" from="29564355#4" to="82800628#1"/>
    <trip id="332" depart="332.00" from="-29333763" to="-31765710"/>
    <trip id="333" depart="333.00" from="24390913" to="-25321109#0"/>
    <trip id="334" depart="334.00" from="-25517358" to="-1364575553"/>
    <trip id="335" depart="335.00" from="-101567301#1" to="124686643#1"/>
    <trip id="336" depart="336.00" from="207815903" to="-652194674"/>
    <trip id="337" depart="337.00" from="-32828707" to="285780181#1"/>
    <trip id="338" depart="338.00" from="26386669#1" to="125871033#1"/>
    <trip id="339" depart="339.00" from="25805269#0" to="777801049#0"/>
    <trip id="340" depart="340.00" from="376988492#0" to="229225608#0"/>
    <trip id="341" depart="341.00" from="24430648#1" to="80262065#0"/>
    <trip id="342" depart="342.00" from="235672044" to="735307653"/>
    <trip id="343" depart="343.00" from="454963522" to="-1360582186"/>
    <trip id="344" depart="344.00" from="-24837785" to="-720908330"/>
    <trip id="345" depart="345.00" from="305082921#1" to="19801693"/>
    <trip id="346" depart="346.00" from="-54417611#1" to="-21094558#1"/>
    <trip id="347" depart="347.00" from="25932929#0" to="27226150#1"/>
    <trip id="348" depart="348.00" from="809375444" to="1389521435"/>
    <trip id="349" depart="349.00" from="1314422175" to="-1408599030"/>
    <trip id="350" depart="350.00" from="-1195096016#0" to="1192261132#1"/>
    <trip id="351" depart="351.00" from="-715375232#0" to="-426378531#1"/>
    <trip id="352" depart="352.00" from="-1416568414" to="84161748"/>
    <trip id="353" depart="353.00" from="48290626" to="204016622"/>
    <trip id="354" depart="354.00" from="82800585" to="998118903"/>
    <trip id="355" depart="355.00" from="25043431#1" to="-54415038#2"/>
    <trip id="356" depart="356.00" from="-1195858306" to="33291040"/>
    <trip id="357" depart="357.00" from="1233500386" to="24790075"/>
    <trip id="358" depart="358.00" from="737594015" to="-276667121#1"/>
    <trip id="359" depart="359.00" from="19801540#0" to="238305793"/>
    <trip id="360" depart="360.00" from="1307054838#0" to="-148469654#0"/>
    <trip id="361" depart="361.00" from="-778330019#1" to="-80719681#2"/>
    <trip id="362" depart="362.00" from="249457392" to="565173419"/>
    <trip id="363" depart="363.00" from="-720920939" to="26485828#9"/>
    <trip id="364" depart="364.00" from="-54405382" to="825889524"/>
    <trip id="365" depart="365.00" from="1189985526" to="-735960052"/>
    <trip id="366" depart="366.00" from="-718712230" to="88718138#0"/>
    <trip id="367" depart="367.00" from="1021068781#0" to="142843327"/>
    <trip id="368" depart="368.00" from="942743742#0" to="25069631"/>
    <trip id="369" depart="369.00" from="148978811#1" to="112320166"/>
    <trip id="370" depart="370.00" from="-26432855#0" to="-93167154"/>
    <trip id="371" depart="371.00" from="315168826" to="229225616#1"/>
    <trip id="372" depart="372.00" from="31875323" to="-299978712"/>
    <trip id="373" depart="373.00" from="155426830#1" to="788425538"/>
    <trip id="374" depart="374.00" from="1123094767" to="27048269#1"/>
    <trip id="375" depart="375.00" from="-177077719" to="906803944"/>
    <trip id="376" depart="376.00" from="217115640#0" to="-407388324"/>
    <trip id="377" depart="377.00" from="-24207567#0" to="176003337"/>
    <trip id="378" depart="378.00" from="963785350" to="74390197"/>
    <trip id="379" depart="379.00" from="120286935" to="-190258866"/>
    <trip id="380" depart="380.00" from="46619386" to="1377290306"/>
    <trip id="381" depart="381.00" from="-454743456" to="528197987"/>
    <trip id="382" depart="382.00" from="918873554" to="-41151853#1"/>
    <trip id="383" depart="383.00" from="156925470" to="1046894400"/>
    <trip id="384" depart="384.00" from="75391391#0" to="1416150109"/>
    <trip id="385" depart="385.00" from="627953094" to="597451781"/>
    <trip id="386" depart="386.00" from="-46203333" to="40769998"/>
    <trip id="387" depart="387.00" from="107022155" to="80445187"/>
    <trip id="388" depart="388.00" from="1359176448" to="46203342#2"/>
    <trip id="389" depart="389.00" from="19803311" to="996211965"/>
    <trip id="390" depart="390.00" from="1299058034" to="-24431839#1"/>
    <trip id="391" depart="391.00" from="145739900" to="-831244566#0"/>
    <trip id="392" depart="392.00" from="157165256#0" to="166762760#0"/>
    <trip id="393" depart="393.00" from="1190465527" to="-76636516#1"/>
    <trip id="394" depart="394.00" from="-26464241#1" to="26770605#3"/>
    <trip id="395" depart="395.00" from="177369914" to="-38311270#4"/>
    <trip id="396" depart="396.00" from="345738503" to="-122219397#0"/>
    <trip id="397" depart="397.00" from="298560684" to="28238723#14"/>
    <trip id="398" depart="398.00" from="42290489#0" to="1059314218#0"/>
    <trip id="399" depart="399.00" from="245537583" to="462327998"/>
    <trip id="400" depart="400.00" from="921480771" to="1366683525"/>
    <trip id="401" depart="401.00" from="-1189647442" to="1395080649"/>
    <trip id="402" depart="402.00" from="200654867" to="62456951#2"/>
    <trip id="403" depart="403.00" from="608022233" to="1204847107#1"/>
    <trip id="404" depart="404.00" from="1412180581" to="127051026"/>
    <trip id="405" depart="405.00" from="24164608#0" to="-25031295#2"/>
    <trip id="406" depart="406.00" from="1229628307" to="881591503#0"/>
    <trip id="407" depart="407.00" from="-741785873" to="26473135#0"/>
    <trip id="408" depart="408.00" from="23778348#1" to="553153911"/>
    <trip id="409" depart="409.00" from="548019547#1" to="572784586"/>
    <trip id="410" depart="410.00" from="-881619036#0" to="-741997694#0"/>
    <trip id="411" depart="411.00" from="28238556#2" to="340173648"/>
    <trip id="412" depart="412.00" from="59291701#1" to="-1195218715"/>
    <trip id="413" depart="413.00" from="-1315554601" to="235654813"/>
    <trip id="414" depart="414.00" from="74889721#0" to="991458808"/>
    <trip id="415" depart="415.00" from="30010057#3" to="1196117333"/>
    <trip id="416" depart="416.00" from="-146196598#1" to="23778392"/>
    <trip id="417" depart="417.00" from="596797670" to="1215532997"/>